L24/1726526/_ATERRAMENTO.dss
! Aterramento do neutro (no 4) dos secundarios de BT
! Reactor de 0.5 ohm entre o no 4 e a terra (no 0).
New Reactor.NEUTRO_node_1026361496 phases=1 bus1=node_1026361496.4 bus2=node_1026361496.0 R=0.5 X=0
New Reactor.NEUTRO_node_1102149609 phases=1 bus1=node_1102149609.4 bus2=node_1102149609.0 R=0.5 X=0
New Reactor.NEUTRO_node_1106005588 phases=1 bus1=node_1106005588.4 bus2=node_1106005588.0 R=0.5 X=0
New Reactor.NEUTRO_node_1107616046 phases=1 bus1=node_1107616046.4 bus2=node_1107616046.0 R=0.5 X=0
New Reactor.NEUTRO_node_1118389487 phases=1 bus1=node_1118389487.4 bus2=node_1118389487.0 R=0.5 X=0
New Reactor.NEUTRO_node_1173019478 phases=1 bus1=node_1173019478.4 bus2=node_1173019478.0 R=0.5 X=0
New Reactor.NEUTRO_node_1173021110 phases=1 bus1=node_1173021110.4 bus2=node_1173021110.0 R=0.5 X=0
New Reactor.NEUTRO_node_1176989876 phases=1 bus1=node_1176989876.4 bus2=node_1176989876.0 R=0.5 X=0
New Reactor.NEUTRO_node_1177041273 phases=1 bus1=node_1177041273.4 bus2=node_1177041273.0 R=0.5 X=0
New Reactor.NEUTRO_node_1186479474 phases=1 bus1=node_1186479474.4 bus2=node_1186479474.0 R=0.5 X=0
New Reactor.NEUTRO_node_1190451700 phases=1 bus1=node_1190451700.4 bus2=node_1190451700.0 R=0.5 X=0
New Reactor.NEUTRO_node_1201637370 phases=1 bus1=node_1201637370.4 bus2=node_1201637370.0 R=0.5 X=0
New Reactor.NEUTRO_node_1201637410 phases=1 bus1=node_1201637410.4 bus2=node_1201637410.0 R=0.5 X=0
New Reactor.NEUTRO_node_1201955521 phases=1 bus1=node_1201955521.4 bus2=node_1201955521.0 R=0.5 X=0
New Reactor.NEUTRO_node_1205965802 phases=1 bus1=node_1205965802.4 bus2=node_1205965802.0 R=0.5 X=0
New Reactor.NEUTRO_node_1216423967 phases=1 bus1=node_1216423967.4 bus2=node_1216423967.0 R=0.5 X=0
New Reactor.NEUTRO_node_1216425051 phases=1 bus1=node_1216425051.4 bus2=node_1216425051.0 R=0.5 X=0
New Reactor.NEUTRO_node_1216425528 phases=1 bus1=node_1216425528.4 bus2=node_1216425528.0 R=0.5 X=0
New Reactor.NEUTRO_node_1219817060 phases=1 bus1=node_1219817060.4 bus2=node_1219817060.0 R=0.5 X=0
New Reactor.NEUTRO_node_1220170344 phases=1 bus1=node_1220170344.4 bus2=node_1220170344.0 R=0.5 X=0
New Reactor.NEUTRO_node_1220170615 phases=1 bus1=node_1220170615.4 bus2=node_1220170615.0 R=0.5 X=0
New Reactor.NEUTRO_node_1225710602 phases=1 bus1=node_1225710602.4 bus2=node_1225710602.0 R=0.5 X=0
New Reactor.NEUTRO_node_1226318650 phases=1 bus1=node_1226318650.4 bus2=node_1226318650.0 R=0.5 X=0
New Reactor.NEUTRO_node_1228530713 phases=1 bus1=node_1228530713.4 bus2=node_1228530713.0 R=0.5 X=0
New Reactor.NEUTRO_node_1234005485 phases=1 bus1=node_1234005485.4 bus2=node_1234005485.0 R=0.5 X=0
New Reactor.NEUTRO_node_1238209549 phases=1 bus1=node_1238209549.4 bus2=node_1238209549.0 R=0.5 X=0
New Reactor.NEUTRO_node_1238209550 phases=1 bus1=node_1238209550.4 bus2=node_1238209550.0 R=0.5 X=0
New Reactor.NEUTRO_node_1239231535 phases=1 bus1=node_1239231535.4 bus2=node_1239231535.0 R=0.5 X=0
New Reactor.NEUTRO_node_1242091099 phases=1 bus1=node_1242091099.4 bus2=node_1242091099.0 R=0.5 X=0
New Reactor.NEUTRO_node_1247492943 phases=1 bus1=node_1247492943.4 bus2=node_1247492943.0 R=0.5 X=0
New Reactor.NEUTRO_node_1250898153 phases=1 bus1=node_1250898153.4 bus2=node_1250898153.0 R=0.5 X=0
New Reactor.NEUTRO_node_1260751698 phases=1 bus1=node_1260751698.4 bus2=node_1260751698.0 R=0.5 X=0
New Reactor.NEUTRO_node_1260751902 phases=1 bus1=node_1260751902.4 bus2=node_1260751902.0 R=0.5 X=0
New Reactor.NEUTRO_node_1260752633 phases=1 bus1=node_1260752633.4 bus2=node_1260752633.0 R=0.5 X=0
New Reactor.NEUTRO_node_1260752721 phases=1 bus1=node_1260752721.4 bus2=node_1260752721.0 R=0.5 X=0
New Reactor.NEUTRO_node_1265712368 phases=1 bus1=node_1265712368.4 bus2=node_1265712368.0 R=0.5 X=0
New Reactor.NEUTRO_node_1267047935 phases=1 bus1=node_1267047935.4 bus2=node_1267047935.0 R=0.5 X=0
New Reactor.NEUTRO_node_1285782555 phases=1 bus1=node_1285782555.4 bus2=node_1285782555.0 R=0.5 X=0
New Reactor.NEUTRO_node_1295315319 phases=1 bus1=node_1295315319.4 bus2=node_1295315319.0 R=0.5 X=0
New Reactor.NEUTRO_node_1295315568 phases=1 bus1=node_1295315568.4 bus2=node_1295315568.0 R=0.5 X=0
New Reactor.NEUTRO_node_1295316001 phases=1 bus1=node_1295316001.4 bus2=node_1295316001.0 R=0.5 X=0
New Reactor.NEUTRO_node_1304242846 phases=1 bus1=node_1304242846.4 bus2=node_1304242846.0 R=0.5 X=0
New Reactor.NEUTRO_node_1308743073 phases=1 bus1=node_1308743073.4 bus2=node_1308743073.0 R=0.5 X=0
New Reactor.NEUTRO_node_1310670934 phases=1 bus1=node_1310670934.4 bus2=node_1310670934.0 R=0.5 X=0
New Reactor.NEUTRO_node_1311886161 phases=1 bus1=node_1311886161.4 bus2=node_1311886161.0 R=0.5 X=0
New Reactor.NEUTRO_node_1312285284 phases=1 bus1=node_1312285284.4 bus2=node_1312285284.0 R=0.5 X=0
New Reactor.NEUTRO_node_1312285394 phases=1 bus1=node_1312285394.4 bus2=node_1312285394.0 R=0.5 X=0
New Reactor.NEUTRO_node_1333579129 phases=1 bus1=node_1333579129.4 bus2=node_1333579129.0 R=0.5 X=0
New Reactor.NEUTRO_node_1333579354 phases=1 bus1=node_1333579354.4 bus2=node_1333579354.0 R=0.5 X=0
New Reactor.NEUTRO_node_1341866507 phases=1 bus1=node_1341866507.4 bus2=node_1341866507.0 R=0.5 X=0
New Reactor.NEUTRO_node_1342347645 phases=1 bus1=node_1342347645.4 bus2=node_1342347645.0 R=0.5 X=0
New Reactor.NEUTRO_node_1346147681 phases=1 bus1=node_1346147681.4 bus2=node_1346147681.0 R=0.5 X=0
New Reactor.NEUTRO_node_1352499026 phases=1 bus1=node_1352499026.4 bus2=node_1352499026.0 R=0.5 X=0
New Reactor.NEUTRO_node_1352499102 phases=1 bus1=node_1352499102.4 bus2=node_1352499102.0 R=0.5 X=0
New Reactor.NEUTRO_node_1359034503 phases=1 bus1=node_1359034503.4 bus2=node_1359034503.0 R=0.5 X=0
New Reactor.NEUTRO_node_1392693508 phases=1 bus1=node_1392693508.4 bus2=node_1392693508.0 R=0.5 X=0
New Reactor.NEUTRO_node_1393235878 phases=1 bus1=node_1393235878.4 bus2=node_1393235878.0 R=0.5 X=0
New Reactor.NEUTRO_node_1396443230 phases=1 bus1=node_1396443230.4 bus2=node_1396443230.0 R=0.5 X=0
New Reactor.NEUTRO_node_1409631160 phases=1 bus1=node_1409631160.4 bus2=node_1409631160.0 R=0.5 X=0
New Reactor.NEUTRO_node_1409633395 phases=1 bus1=node_1409633395.4 bus2=node_1409633395.0 R=0.5 X=0
New Reactor.NEUTRO_node_1409633927 phases=1 bus1=node_1409633927.4 bus2=node_1409633927.0 R=0.5 X=0
New Reactor.NEUTRO_node_1413941429 phases=1 bus1=node_1413941429.4 bus2=node_1413941429.0 R=0.5 X=0
New Reactor.NEUTRO_node_1503454244 phases=1 bus1=node_1503454244.4 bus2=node_1503454244.0 R=0.5 X=0
New Reactor.NEUTRO_node_1579981991 phases=1 bus1=node_1579981991.4 bus2=node_1579981991.0 R=0.5 X=0
New Reactor.NEUTRO_node_1582227461 phases=1 bus1=node_1582227461.4 bus2=node_1582227461.0 R=0.5 X=0
New Reactor.NEUTRO_node_1625425215 phases=1 bus1=node_1625425215.4 bus2=node_1625425215.0 R=0.5 X=0
New Reactor.NEUTRO_node_1627533410 phases=1 bus1=node_1627533410.4 bus2=node_1627533410.0 R=0.5 X=0
New Reactor.NEUTRO_node_1667149898 phases=1 bus1=node_1667149898.4 bus2=node_1667149898.0 R=0.5 X=0
New Reactor.NEUTRO_node_1667494317 phases=1 bus1=node_1667494317.4 bus2=node_1667494317.0 R=0.5 X=0
New Reactor.NEUTRO_node_1700655903 phases=1 bus1=node_1700655903.4 bus2=node_1700655903.0 R=0.5 X=0
New Reactor.NEUTRO_node_1711940573 phases=1 bus1=node_1711940573.4 bus2=node_1711940573.0 R=0.5 X=0
New Reactor.NEUTRO_node_1711997026 phases=1 bus1=node_1711997026.4 bus2=node_1711997026.0 R=0.5 X=0
New Reactor.NEUTRO_node_1712125293 phases=1 bus1=node_1712125293.4 bus2=node_1712125293.0 R=0.5 X=0
New Reactor.NEUTRO_node_1713469507 phases=1 bus1=node_1713469507.4 bus2=node_1713469507.0 R=0.5 X=0
New Reactor.NEUTRO_node_1714714477 phases=1 bus1=node_1714714477.4 bus2=node_1714714477.0 R=0.5 X=0
New Reactor.NEUTRO_node_1740770452 phases=1 bus1=node_1740770452.4 bus2=node_1740770452.0 R=0.5 X=0
New Reactor.NEUTRO_node_1742883838 phases=1 bus1=node_1742883838.4 bus2=node_1742883838.0 R=0.5 X=0
New Reactor.NEUTRO_node_1743768924 phases=1 bus1=node_1743768924.4 bus2=node_1743768924.0 R=0.5 X=0
New Reactor.NEUTRO_node_1743769582 phases=1 bus1=node_1743769582.4 bus2=node_1743769582.0 R=0.5 X=0
New Reactor.NEUTRO_node_1743769958 phases=1 bus1=node_1743769958.4 bus2=node_1743769958.0 R=0.5 X=0
New Reactor.NEUTRO_node_1745335619 phases=1 bus1=node_1745335619.4 bus2=node_1745335619.0 R=0.5 X=0
New Reactor.NEUTRO_node_1751510373 phases=1 bus1=node_1751510373.4 bus2=node_1751510373.0 R=0.5 X=0
New Reactor.NEUTRO_node_1760304132 phases=1 bus1=node_1760304132.4 bus2=node_1760304132.0 R=0.5 X=0
New Reactor.NEUTRO_node_1786312876 phases=1 bus1=node_1786312876.4 bus2=node_1786312876.0 R=0.5 X=0
New Reactor.NEUTRO_node_1786313008 phases=1 bus1=node_1786313008.4 bus2=node_1786313008.0 R=0.5 X=0
New Reactor.NEUTRO_node_1792732360 phases=1 bus1=node_1792732360.4 bus2=node_1792732360.0 R=0.5 X=0
New Reactor.NEUTRO_node_1798159889 phases=1 bus1=node_1798159889.4 bus2=node_1798159889.0 R=0.5 X=0
New Reactor.NEUTRO_node_1804274879 phases=1 bus1=node_1804274879.4 bus2=node_1804274879.0 R=0.5 X=0
New Reactor.NEUTRO_node_1804277427 phases=1 bus1=node_1804277427.4 bus2=node_1804277427.0 R=0.5 X=0
New Reactor.NEUTRO_node_1804277682 phases=1 bus1=node_1804277682.4 bus2=node_1804277682.0 R=0.5 X=0
New Reactor.NEUTRO_node_1811116149 phases=1 bus1=node_1811116149.4 bus2=node_1811116149.0 R=0.5 X=0
New Reactor.NEUTRO_node_1823666176 phases=1 bus1=node_1823666176.4 bus2=node_1823666176.0 R=0.5 X=0
New Reactor.NEUTRO_node_1831095626 phases=1 bus1=node_1831095626.4 bus2=node_1831095626.0 R=0.5 X=0
New Reactor.NEUTRO_node_1864051414 phases=1 bus1=node_1864051414.4 bus2=node_1864051414.0 R=0.5 X=0
New Reactor.NEUTRO_node_1864052402 phases=1 bus1=node_1864052402.4 bus2=node_1864052402.0 R=0.5 X=0
New Reactor.NEUTRO_node_1864052608 phases=1 bus1=node_1864052608.4 bus2=node_1864052608.0 R=0.5 X=0
New Reactor.NEUTRO_node_1864052777 phases=1 bus1=node_1864052777.4 bus2=node_1864052777.0 R=0.5 X=0
New Reactor.NEUTRO_node_1864053177 phases=1 bus1=node_1864053177.4 bus2=node_1864053177.0 R=0.5 X=0
New Reactor.NEUTRO_node_1864053709 phases=1 bus1=node_1864053709.4 bus2=node_1864053709.0 R=0.5 X=0
New Reactor.NEUTRO_node_1865764634 phases=1 bus1=node_1865764634.4 bus2=node_1865764634.0 R=0.5 X=0
New Reactor.NEUTRO_node_1879531070 phases=1 bus1=node_1879531070.4 bus2=node_1879531070.0 R=0.5 X=0
New Reactor.NEUTRO_node_1880578798 phases=1 bus1=node_1880578798.4 bus2=node_1880578798.0 R=0.5 X=0
New Reactor.NEUTRO_node_1881832696 phases=1 bus1=node_1881832696.4 bus2=node_1881832696.0 R=0.5 X=0
New Reactor.NEUTRO_node_1898162707 phases=1 bus1=node_1898162707.4 bus2=node_1898162707.0 R=0.5 X=0
New Reactor.NEUTRO_node_1900314090 phases=1 bus1=node_1900314090.4 bus2=node_1900314090.0 R=0.5 X=0
New Reactor.NEUTRO_node_1900361282 phases=1 bus1=node_1900361282.4 bus2=node_1900361282.0 R=0.5 X=0
New Reactor.NEUTRO_node_1902529867 phases=1 bus1=node_1902529867.4 bus2=node_1902529867.0 R=0.5 X=0
New Reactor.NEUTRO_node_1907150113 phases=1 bus1=node_1907150113.4 bus2=node_1907150113.0 R=0.5 X=0
New Reactor.NEUTRO_node_1908962114 phases=1 bus1=node_1908962114.4 bus2=node_1908962114.0 R=0.5 X=0
New Reactor.NEUTRO_node_1908962347 phases=1 bus1=node_1908962347.4 bus2=node_1908962347.0 R=0.5 X=0
New Reactor.NEUTRO_node_1919044931 phases=1 bus1=node_1919044931.4 bus2=node_1919044931.0 R=0.5 X=0
New Reactor.NEUTRO_node_1950827010 phases=1 bus1=node_1950827010.4 bus2=node_1950827010.0 R=0.5 X=0
New Reactor.NEUTRO_node_1967431110 phases=1 bus1=node_1967431110.4 bus2=node_1967431110.0 R=0.5 X=0
New Reactor.NEUTRO_node_1967431409 phases=1 bus1=node_1967431409.4 bus2=node_1967431409.0 R=0.5 X=0
New Reactor.NEUTRO_node_1967431596 phases=1 bus1=node_1967431596.4 bus2=node_1967431596.0 R=0.5 X=0
New Reactor.NEUTRO_node_1967432042 phases=1 bus1=node_1967432042.4 bus2=node_1967432042.0 R=0.5 X=0
New Reactor.NEUTRO_node_1967432416 phases=1 bus1=node_1967432416.4 bus2=node_1967432416.0 R=0.5 X=0
New Reactor.NEUTRO_node_1967432861 phases=1 bus1=node_1967432861.4 bus2=node_1967432861.0 R=0.5 X=0
New Reactor.NEUTRO_node_1969911244 phases=1 bus1=node_1969911244.4 bus2=node_1969911244.0 R=0.5 X=0
New Reactor.NEUTRO_node_1975240262 phases=1 bus1=node_1975240262.4 bus2=node_1975240262.0 R=0.5 X=0
New Reactor.NEUTRO_node_1975506358 phases=1 bus1=node_1975506358.4 bus2=node_1975506358.0 R=0.5 X=0
New Reactor.NEUTRO_node_2007071956 phases=1 bus1=node_2007071956.4 bus2=node_2007071956.0 R=0.5 X=0
New Reactor.NEUTRO_node_2009304423 phases=1 bus1=node_2009304423.4 bus2=node_2009304423.0 R=0.5 X=0
New Reactor.NEUTRO_node_2016729423 phases=1 bus1=node_2016729423.4 bus2=node_2016729423.0 R=0.5 X=0
New Reactor.NEUTRO_node_2019970658 phases=1 bus1=node_2019970658.4 bus2=node_2019970658.0 R=0.5 X=0
New Reactor.NEUTRO_node_2023367367 phases=1 bus1=node_2023367367.4 bus2=node_2023367367.0 R=0.5 X=0
New Reactor.NEUTRO_node_2027193658 phases=1 bus1=node_2027193658.4 bus2=node_2027193658.0 R=0.5 X=0
New Reactor.NEUTRO_node_2027194521 phases=1 bus1=node_2027194521.4 bus2=node_2027194521.0 R=0.5 X=0
New Reactor.NEUTRO_node_2027195108 phases=1 bus1=node_2027195108.4 bus2=node_2027195108.0 R=0.5 X=0
New Reactor.NEUTRO_node_2027195711 phases=1 bus1=node_2027195711.4 bus2=node_2027195711.0 R=0.5 X=0
New Reactor.NEUTRO_node_2027195848 phases=1 bus1=node_2027195848.4 bus2=node_2027195848.0 R=0.5 X=0
New Reactor.NEUTRO_node_2027196109 phases=1 bus1=node_2027196109.4 bus2=node_2027196109.0 R=0.5 X=0
New Reactor.NEUTRO_node_2043175444 phases=1 bus1=node_2043175444.4 bus2=node_2043175444.0 R=0.5 X=0
New Reactor.NEUTRO_node_2050458091 phases=1 bus1=node_2050458091.4 bus2=node_2050458091.0 R=0.5 X=0
New Reactor.NEUTRO_node_2063292805 phases=1 bus1=node_2063292805.4 bus2=node_2063292805.0 R=0.5 X=0
New Reactor.NEUTRO_node_2084943250 phases=1 bus1=node_2084943250.4 bus2=node_2084943250.0 R=0.5 X=0
New Reactor.NEUTRO_node_2087159073 phases=1 bus1=node_2087159073.4 bus2=node_2087159073.0 R=0.5 X=0
New Reactor.NEUTRO_node_2092601642 phases=1 bus1=node_2092601642.4 bus2=node_2092601642.0 R=0.5 X=0
New Reactor.NEUTRO_node_2094425247 phases=1 bus1=node_2094425247.4 bus2=node_2094425247.0 R=0.5 X=0
New Reactor.NEUTRO_node_2097481697 phases=1 bus1=node_2097481697.4 bus2=node_2097481697.0 R=0.5 X=0
New Reactor.NEUTRO_node_2100694010 phases=1 bus1=node_2100694010.4 bus2=node_2100694010.0 R=0.5 X=0
New Reactor.NEUTRO_node_2100694176 phases=1 bus1=node_2100694176.4 bus2=node_2100694176.0 R=0.5 X=0
New Reactor.NEUTRO_node_2100694266 phases=1 bus1=node_2100694266.4 bus2=node_2100694266.0 R=0.5 X=0
New Reactor.NEUTRO_node_2100694623 phases=1 bus1=node_2100694623.4 bus2=node_2100694623.0 R=0.5 X=0
New Reactor.NEUTRO_node_2100694845 phases=1 bus1=node_2100694845.4 bus2=node_2100694845.0 R=0.5 X=0
New Reactor.NEUTRO_node_2109607957 phases=1 bus1=node_2109607957.4 bus2=node_2109607957.0 R=0.5 X=0
New Reactor.NEUTRO_node_2110977826 phases=1 bus1=node_2110977826.4 bus2=node_2110977826.0 R=0.5 X=0
New Reactor.NEUTRO_node_2120824729 phases=1 bus1=node_2120824729.4 bus2=node_2120824729.0 R=0.5 X=0
New Reactor.NEUTRO_node_2128793711 phases=1 bus1=node_2128793711.4 bus2=node_2128793711.0 R=0.5 X=0
New Reactor.NEUTRO_node_2129781236 phases=1 bus1=node_2129781236.4 bus2=node_2129781236.0 R=0.5 X=0
New Reactor.NEUTRO_node_2132555166 phases=1 bus1=node_2132555166.4 bus2=node_2132555166.0 R=0.5 X=0
New Reactor.NEUTRO_node_2141855930 phases=1 bus1=node_2141855930.4 bus2=node_2141855930.0 R=0.5 X=0
New Reactor.NEUTRO_node_2148391897 phases=1 bus1=node_2148391897.4 bus2=node_2148391897.0 R=0.5 X=0
New Reactor.NEUTRO_node_2155099605 phases=1 bus1=node_2155099605.4 bus2=node_2155099605.0 R=0.5 X=0
New Reactor.NEUTRO_node_2176744622 phases=1 bus1=node_2176744622.4 bus2=node_2176744622.0 R=0.5 X=0
New Reactor.NEUTRO_node_2176744750 phases=1 bus1=node_2176744750.4 bus2=node_2176744750.0 R=0.5 X=0
New Reactor.NEUTRO_node_2177757924 phases=1 bus1=node_2177757924.4 bus2=node_2177757924.0 R=0.5 X=0
New Reactor.NEUTRO_node_2186122732 phases=1 bus1=node_2186122732.4 bus2=node_2186122732.0 R=0.5 X=0
New Reactor.NEUTRO_node_2188905245 phases=1 bus1=node_2188905245.4 bus2=node_2188905245.0 R=0.5 X=0
New Reactor.NEUTRO_node_2225301149 phases=1 bus1=node_2225301149.4 bus2=node_2225301149.0 R=0.5 X=0
New Reactor.NEUTRO_node_2225429925 phases=1 bus1=node_2225429925.4 bus2=node_2225429925.0 R=0.5 X=0
New Reactor.NEUTRO_node_2226825518 phases=1 bus1=node_2226825518.4 bus2=node_2226825518.0 R=0.5 X=0
New Reactor.NEUTRO_node_2260254333 phases=1 bus1=node_2260254333.4 bus2=node_2260254333.0 R=0.5 X=0
New Reactor.NEUTRO_node_2279830762 phases=1 bus1=node_2279830762.4 bus2=node_2279830762.0 R=0.5 X=0
New Reactor.NEUTRO_node_2297835362 phases=1 bus1=node_2297835362.4 bus2=node_2297835362.0 R=0.5 X=0
New Reactor.NEUTRO_node_2300239980 phases=1 bus1=node_2300239980.4 bus2=node_2300239980.0 R=0.5 X=0
New Reactor.NEUTRO_node_2304203441 phases=1 bus1=node_2304203441.4 bus2=node_2304203441.0 R=0.5 X=0
New Reactor.NEUTRO_node_2305397260 phases=1 bus1=node_2305397260.4 bus2=node_2305397260.0 R=0.5 X=0
New Reactor.NEUTRO_node_2309648500 phases=1 bus1=node_2309648500.4 bus2=node_2309648500.0 R=0.5 X=0
New Reactor.NEUTRO_node_2346254514 phases=1 bus1=node_2346254514.4 bus2=node_2346254514.0 R=0.5 X=0
New Reactor.NEUTRO_node_2346254643 phases=1 bus1=node_2346254643.4 bus2=node_2346254643.0 R=0.5 X=0
New Reactor.NEUTRO_node_2353034834 phases=1 bus1=node_2353034834.4 bus2=node_2353034834.0 R=0.5 X=0
New Reactor.NEUTRO_node_2364937709 phases=1 bus1=node_2364937709.4 bus2=node_2364937709.0 R=0.5 X=0
New Reactor.NEUTRO_node_2367089783 phases=1 bus1=node_2367089783.4 bus2=node_2367089783.0 R=0.5 X=0
New Reactor.NEUTRO_node_2367090416 phases=1 bus1=node_2367090416.4 bus2=node_2367090416.0 R=0.5 X=0
New Reactor.NEUTRO_node_2406061958 phases=1 bus1=node_2406061958.4 bus2=node_2406061958.0 R=0.5 X=0
New Reactor.NEUTRO_node_2436312585 phases=1 bus1=node_2436312585.4 bus2=node_2436312585.0 R=0.5 X=0
New Reactor.NEUTRO_node_2446716946 phases=1 bus1=node_2446716946.4 bus2=node_2446716946.0 R=0.5 X=0
New Reactor.NEUTRO_node_2447459779 phases=1 bus1=node_2447459779.4 bus2=node_2447459779.0 R=0.5 X=0
New Reactor.NEUTRO_node_2464687323 phases=1 bus1=node_2464687323.4 bus2=node_2464687323.0 R=0.5 X=0
New Reactor.NEUTRO_node_2477496579 phases=1 bus1=node_2477496579.4 bus2=node_2477496579.0 R=0.5 X=0
New Reactor.NEUTRO_node_2491396123 phases=1 bus1=node_2491396123.4 bus2=node_2491396123.0 R=0.5 X=0
New Reactor.NEUTRO_node_2491881762 phases=1 bus1=node_2491881762.4 bus2=node_2491881762.0 R=0.5 X=0
New Reactor.NEUTRO_node_2494535031 phases=1 bus1=node_2494535031.4 bus2=node_2494535031.0 R=0.5 X=0
New Reactor.NEUTRO_node_2494676739 phases=1 bus1=node_2494676739.4 bus2=node_2494676739.0 R=0.5 X=0
New Reactor.NEUTRO_node_2501521752 phases=1 bus1=node_2501521752.4 bus2=node_2501521752.0 R=0.5 X=0
New Reactor.NEUTRO_node_2507026208 phases=1 bus1=node_2507026208.4 bus2=node_2507026208.0 R=0.5 X=0
New Reactor.NEUTRO_node_2511796912 phases=1 bus1=node_2511796912.4 bus2=node_2511796912.0 R=0.5 X=0
New Reactor.NEUTRO_node_2520427878 phases=1 bus1=node_2520427878.4 bus2=node_2520427878.0 R=0.5 X=0
New Reactor.NEUTRO_node_2525383897 phases=1 bus1=node_2525383897.4 bus2=node_2525383897.0 R=0.5 X=0
New Reactor.NEUTRO_node_2525384045 phases=1 bus1=node_2525384045.4 bus2=node_2525384045.0 R=0.5 X=0
New Reactor.NEUTRO_node_2525384529 phases=1 bus1=node_2525384529.4 bus2=node_2525384529.0 R=0.5 X=0
New Reactor.NEUTRO_node_2525384631 phases=1 bus1=node_2525384631.4 bus2=node_2525384631.0 R=0.5 X=0
New Reactor.NEUTRO_node_2525384819 phases=1 bus1=node_2525384819.4 bus2=node_2525384819.0 R=0.5 X=0
New Reactor.NEUTRO_node_2525385423 phases=1 bus1=node_2525385423.4 bus2=node_2525385423.0 R=0.5 X=0
New Reactor.NEUTRO_node_2525386197 phases=1 bus1=node_2525386197.4 bus2=node_2525386197.0 R=0.5 X=0
New Reactor.NEUTRO_node_2525386303 phases=1 bus1=node_2525386303.4 bus2=node_2525386303.0 R=0.5 X=0
New Reactor.NEUTRO_node_2525386541 phases=1 bus1=node_2525386541.4 bus2=node_2525386541.0 R=0.5 X=0
New Reactor.NEUTRO_node_2525386790 phases=1 bus1=node_2525386790.4 bus2=node_2525386790.0 R=0.5 X=0
New Reactor.NEUTRO_node_2525386805 phases=1 bus1=node_2525386805.4 bus2=node_2525386805.0 R=0.5 X=0
...
